*----------------------------------------------------------------------
* SPICE Model generated by Murata Manufacturing Co., Ltd.
* Copyright(C) Murata Manufacturing Co., Ltd.
* Description :2012M(0805)/X7T(-55to125[deg])/1.00e+02[uF]/2.5[V]
* Murata P/N :GRM21BD70E107ME01
* Property : C = 1.00e+02[uF]
* Data Generated on Apr 02, 2025
*----------------------------------------------------------------------
* Applicable Conditions:
*   Frequency Range = 100[Hz]-6[GHz]
*   Temperature = 25 degC
*   DC Bias Voltage = 0V
*   Small Signal Operation
*----------------------------------------------------------------------
.SUBCKT GRM21BD70E107ME01 Port1 Port2
C01 Port1 N01 6.93e-05
R01 Port1 N01 5.00e+05
L02 N01 N02 1.88e-10
R03 N02 N03 1.48e-03
C04 N03 N04 4.33e-03
R04 N03 N04 6.19e-01
C05 N04 N05 6.33e-03
R05 N04 N05 6.62e-02
C06 N05 N06 5.13e-03
R06 N05 N06 1.95e-02
C07 N06 N07 7.44e-03
R07 N06 N07 4.08e-03
C08 N07 N08 3.10e-03
R08 N07 N08 6.65e-04
L09 N08 N09 1.36e-11
R09 N08 N09 3.48e-02
L10 N09 N10 2.42e-11
R10 N09 N10 1.96e-02
L11 N10 N11 7.44e-11
R11 N10 N11 1.14e-02
L12 N11 N12 3.56e-10
R12 N11 N12 3.73e-03
L13 N12 N13 1.79e-10
R13 N12 N13 2.62e-03
C14 N13 N14 1.13e-03
L14 N13 N14 2.13e-11
R14 N13 N14 5.67e-04
C15 N14 N15 1.28e-04
L15 N14 N15 1.05e-10
R15 N14 N15 1.43e-03
C16 N15 Port2 2.54e-11
L16 N15 Port2 4.41e-11
R16 N15 Port2 2.23e+00
.ENDS GRM21BD70E107ME01
