.subckt X5R_CAP 1 2
C1 1 2 Q={V(1,2)*(C0+Csat)/2 + (Csat-C0)/4*Vtra*ln(cosh((V(1,2)-Vth)*2/Vtra))}
.param C0=10u Csat=4u Vth=5 Vtra=2
.ends